test/resources/V1_12/regulatingTerminal.xml
<?xml version="1.0" encoding="UTF-8"?>
<iidm:network xmlns:iidm="http://www.powsybl.org/schema/iidm/1_12" id="three-windings-transformer" caseDate="2018-03-05T13:30:30.486000+01:00" forecastDistance="0" sourceFormat="test" minimumValidationLevel="STEADY_STATE_HYPOTHESIS">
    <iidm:substation id="SUBSTATION" country="FR">
        <iidm:voltageLevel id="VL_132" nominalV="132" lowVoltageLimit="118.8" highVoltageLimit="145.19999999999999" topologyKind="BUS_BREAKER">
            <iidm:busBreakerTopology>
                <iidm:bus id="BUS_132" v="133.584" angle="-9.6199999999999992"/>
            </iidm:busBreakerTopology>
            <iidm:generator id="GEN" energySource="OTHER" minP="-9999.9899999999998" maxP="9999.9899999999998" voltageRegulatorOn="true" targetP="607" targetV="24.5" targetQ="301" bus="BUS_132" connectableBus="BUS_132">
                <iidm:regulatingTerminal id="3WT" side="THREE"/>
                <iidm:minMaxReactiveLimits minQ="-9999.9899999999998" maxQ="9999.9899999999998"/>
            </iidm:generator>
        </iidm:voltageLevel>
        <iidm:voltageLevel id="VL_33" nominalV="33" lowVoltageLimit="29.699999999999999" highVoltageLimit="36.299999999999997" topologyKind="BUS_BREAKER">
            <iidm:busBreakerTopology>
                <iidm:bus id="BUS_33" v="34.881" angle="-15.24"/>
            </iidm:busBreakerTopology>
            <iidm:load id="LOAD_33" loadType="UNDEFINED" p0="11.199999999999999" q0="7.5" bus="BUS_33" connectableBus="BUS_33" p="11.199999999999999" q="7.5"/>
        </iidm:voltageLevel>
        <iidm:voltageLevel id="VL_11" nominalV="11" lowVoltageLimit="9.9000000000000004" highVoltageLimit="12.1" topologyKind="BUS_BREAKER">
            <iidm:busBreakerTopology>
                <iidm:bus id="BUS_11" v="11.781000000000001" angle="-15.24"/>
            </iidm:busBreakerTopology>
            <iidm:load id="LOAD_11" loadType="UNDEFINED" p0="0" q0="-10.6" bus="BUS_11" connectableBus="BUS_11" p="0" q="-10.6"/>
        </iidm:voltageLevel>
        <iidm:threeWindingsTransformer id="3WT" r1="17.423999999999999" x1="1.7423999999999999" g1="0.0057392102846648297" b1="0.00057392102846648299" ratedU1="132" r2="1.089" x2="0.1089" g2="0" b2="0" ratedU2="33" r3="0.121" x3="0.0121" g3="0" b3="0" ratedU3="11" ratedU0="132" bus1="BUS_132" connectableBus1="BUS_132" voltageLevelId1="VL_132" bus2="BUS_33" connectableBus2="BUS_33" voltageLevelId2="VL_33" bus3="BUS_11" connectableBus3="BUS_11" voltageLevelId3="VL_11"/>
    </iidm:substation>
</iidm:network>
